%chk=minfo.files/mkqff1-1.chk
%NprocShared=2
%mem=1GB
#P B3LYP/CC-PVDZ FREQ  NOSYMMETRY MAXDISK=240GB

Frequency at B3LYP/cc-pVDZ

0  1  
C        0.000000    -0.010522    -0.601474  
O       -0.000000     0.005659     0.602725  
H       -0.000000     0.963702    -1.156116  
H       -0.000000    -0.928227    -1.247918  

