%NprocShared=8
%mem=4000MB
%chk=eq-mp2dz.chk
#p MP2/cc-pVDZ Opt Freq=hpmode

 c2h4 Frequency MP2/cc-pVDZ

 0 1
 C     0.0000000000   0.0000000000   0.6000000000
 C     0.0000000000   0.0000000000  -0.6000000000
 H     0.000000000    0.8650000000   1.1000000000
 H     0.000000000   -0.8650000000   1.1000000000
 H     0.000000000    0.8650000000  -1.1000000000
 H     0.000000000   -0.8650000000  -1.1000000000

