%chk=h2co-b3lyp-dz.chk
%mem=1000MB
#p b3lyp/cc-pvdz opt freq

H2CO b3lyp/cc-pvdz (opt/freq)

0 1
 C           0.0000000000   0.0000000000  -0.5326033874
 O           0.0000000000   0.0000000000   0.6803027768
 H          -0.9358605394   0.0000000000  -1.1109821947
 H           0.9358605394   0.0000000000  -1.1109821947

