%chk=minfo.files/mkqff2-1.chk
%NprocShared=2
%mem=1GB
#P B3LYP/CC-PVDZ FREQ  NOSYMMETRY MAXDISK=240GB

Frequency at B3LYP/cc-pVDZ

0  1  
C        0.000000     0.000000    -0.601662  
O       -0.000000    -0.000000     0.608322  
H       -0.000000     0.920738    -1.245316  
H       -0.000000    -0.920738    -1.245316  

