%chk=minfo.files/mkqff8_6-3.chk
%mem=1GB
#P MP2/CC-PVDZ FREQ  NOSYMMETRY MAXDISK=240GB

Frequency at MP2/cc-pVDZ

0   1  
O        1.412235    -0.973078    -1.243392  
H        0.514706    -1.054298    -1.461641  
H        1.520811    -1.245520    -0.293827  
O       -1.421279    -0.912820    -1.333821  
H       -2.006435    -1.559630    -1.748031  
H       -1.586393    -1.016640    -0.373230  
O       -1.461511    -0.438577     1.362431  
H       -1.436595     0.477988     0.971325  
H       -2.151323    -0.395015     2.037200  
O        1.341576    -0.892545     1.541961  
H        1.581105     0.032018     1.365421  
H        0.377029    -0.820208     1.664835  
O       -1.259439     1.741772    -0.134895  
H       -0.281783     1.833311    -0.179657  
H       -1.444473     1.192290    -0.914164  
O        1.466586     1.468224    -0.179863  
H        2.156770     2.034606    -0.547765  
H        1.520519     0.634533    -0.721952  

